LTspice 24.0.12 for Windows
Circuit: * C:\Users\ffejs\Documents\ELEN-2425\Homework 3\HW3P01.asc
Start Time: Mon Feb 24 23:58:30 2025
solver = Normal
Maximum thread count: 16
tnom = 27
temp = 27
method = modified trap
WARNING: Less than two connections to node v0.  This node is used by e§v0.
Direct Newton iteration for .op point succeeded.
Total elapsed time: 0.069 seconds.

