LTspice 24.0.12 for Windows
Circuit: * C:\Users\ffejs\Documents\ELEN-2425\Homework 7\hw7_prob1a.asc
Start Time: Tue Apr 22 15:45:42 2025
solver = Normal
Maximum thread count: 16
tnom = 27
temp = 27
method = modified trap
.OP point found by inspection.

freqval: ph(v(vzeq))=0 AT 59.5693201185
zeqval: v(vzeq)=(0.00385694279977,-89.6123957686°) at 59.5693201185
reqval: re(v(vzeq))=(2.60919034387e-05,0°) at 59.5693201185

Total elapsed time: 0.166 seconds.

