LTspice 24.0.12 for Windows
Circuit: * C:\Users\ffejs\Documents\ELEN-2425\Homework 7\hw7_prob2.asc
Start Time: Tue Apr 22 23:44:00 2025
solver = Normal
Maximum thread count: 16
tnom = 27
temp = 27
method = modified trap
WARNING: Less than two connections to node vx.  This node is used by e1.
.OP point found by inspection.
Total elapsed time: 0.076 seconds.

