LTspice 24.0.12 for Windows
Circuit: * C:\Users\ffejs\Documents\ELEN-2425\Homework 7\hw7_prob3.asc
Start Time: Wed Apr 23 11:46:11 2025
solver = Normal
Maximum thread count: 16
tnom = 27
temp = 27
method = modified trap
WARNING: Less than two connections to node vout.  This node is used by e2.
.OP point found by inspection.
Total elapsed time: 0.072 seconds.

