LTspice 24.0.12 for Windows
Circuit: * C:\Users\ffejs\Documents\ELEN-2425\Homework 7\hw7_prob7d.asc
Start Time: Thu Apr 24 11:02:57 2025
l3: both pins shorted together -- ignoring.
solver = Normal
Maximum thread count: 16
tnom = 27
temp = 27
method = modified trap
WARNING: Less than two connections to node vrlckt1.  This node is used by e1.
WARNING: Less than two connections to node vrlckt2.  This node is used by e2.
Direct Newton iteration for .op point succeeded.

pload1: MAX(v(vrlckt1)*i(v3)/2)=2.50026047011 FROM 0 TO 0.5
pload2: MAX(v(vrlckt2)*i(v4)/2)=2.21992772377 FROM 0 TO 0.5

Total elapsed time: 0.319 seconds.

