LTspice 24.0.12 for Windows
Circuit: * C:\Users\ffejs\Documents\ELEN-2425\Lab 3\Lab03_02e.asc
Start Time: Wed Feb 19 18:12:21 2025
r2: both pins shorted together -- ignoring.
solver = Normal
Maximum thread count: 16
tnom = 27
temp = 27
method = modified trap
Direct Newton iteration for .op point succeeded.
Total elapsed time: 0.094 seconds.

