LTspice 24.0.12 for Windows
Circuit: * C:\Users\ffejs\Documents\ELEN-2425\Homework 6\hw6_prob1.asc
Start Time: Sat Apr  5 18:16:58 2025
solver = Normal
Maximum thread count: 16
tnom = 27
temp = 27
method = modified trap
WARNING: Less than two connections to node voutcheck.  This node is used by b1.
Direct Newton iteration for .op point succeeded.

maxerror: MAX(abs(v(vout)-v(voutcheck)))=0.00269952158477 FROM 0 TO 0.02

Total elapsed time: 0.195 seconds.

