LTspice 24.0.12 for Windows
Circuit: * C:\Users\ffejs\Documents\ELEN-2425\Homework 6\hw6_prob4.asc
Start Time: Sun Apr  6 20:06:04 2025
solver = Normal
Maximum thread count: 16
tnom = 27
temp = 27
method = modified trap
WARNING: Less than two connections to node vxcheck.  This node is used by b1.
Direct Newton iteration for .op point succeeded.

maxerror: MAX(abs(v(vx)-v(vxcheck)))=0.0050673314236 FROM 0 TO 0.16

Total elapsed time: 0.258 seconds.

