LTspice 24.0.12 for Windows
Circuit: * C:\Users\ffejs\Documents\ELEN-2425\Homework 6\hw6_prob2.asc
Start Time: Sun Apr  6 18:07:38 2025
solver = Normal
Maximum thread count: 16
tnom = 27
temp = 27
method = modified trap
Direct Newton iteration for .op point succeeded.

maxerror: MAX(abs(i(v3)-i(v4)))=0.000199601196808 FROM 0 TO 0.0025

Total elapsed time: 0.170 seconds.

