LTspice 24.0.12 for Windows
Circuit: * C:\Users\ffejs\Documents\ELEN-2425\Homework 2\HW02-03.asc
Start Time: Mon Feb 17 22:03:47 2025
solver = Normal
Maximum thread count: 16
tnom = 27
temp = 27
method = modified trap
Direct Newton iteration for .op point succeeded.
Total elapsed time: 0.078 seconds.

