LTspice 24.0.12 for Windows
Circuit: * C:\Users\ffejs\Documents\ELEN-2425\Lab08\Lab08.asc
Start Time: Fri Apr  4 14:25:34 2025
solver = Normal
Maximum thread count: 16
tnom = 27
temp = 27
method = modified trap
Direct Newton iteration for .op point succeeded.
Total elapsed time: 0.072 seconds.

