LTspice 24.0.12 for Windows
Circuit: * C:\Users\ffejs\Documents\ELEN-2425\Homework 4\HW04P03.asc
Start Time: Sat Mar  8 15:36:51 2025
solver = Normal
Maximum thread count: 16



Direct Newton iteration for .op point succeeded.





































































































































































































































































































































































































































































































































































































































































































































































































































































































































































































































































































































































































































































































































































































































































































































































































































































































































































































































































tnom = 27
temp = 27
method = modified trap
Total elapsed time: 7.661 seconds.

